[General]
parallel-simulation = false
parsim-num-partitions = 4
simtime-resolution = ps

[Single_switch]
network = single_switch
sim-time-limit = 5s
*.*.hasCutthroughSwitching = false
#warmup-period = 0.5s #need later for ptp sync
#**.result-recording-modes = all
#**.displayGateSchedules = true
#**.gateFilter = "**.eth[2].**"#"**"#"**.eth[1].**"
#**.gateScheduleVisualizer.height = 16
#**.gateScheduleVisualizer.placementHint = "top"
#*.switch*.measurer.typename = "ResidenceTimeMeasurer"
**.fcsChecker.enabled=false
**.priority.eth[0].phyLayer.transmitter.timestamping=true
**.priority.eth[0].phyLayer.transmitter.ts_offset=56
**.priority.eth[0].phyLayer.transmitter.ts_packetFilter = "*priority*"

**.server.eth[0].phyLayer.receiver.timestamping=true
**.server.eth[0].phyLayer.receiver.ts_offset=64
**.server.eth[0].phyLayer.receiver.ts_packetFilter = "*priority*"
**.crcMode = "computed"
**.fcsMode = "computed"
*.server.numPcapRecorders = 1
*.server.pcapRecorder[*].packetFilter = "*priority*"
*.server.pcapRecorder[*].pcapFile = "results/server.pcap"
**.pcapRecorder[*].alwaysFlush = true


*.visualizer.typename = "IntegratedMultiCanvasVisualizer"
*.visualizer.infoVisualizer.displayInfos = true

*.server.numApps = 1
*.server.app[*].typename = "UdpSinkApp"
*.server.app[0].display-name = "priority"
*.server.app[0].io.localPort = 1000

*.priority.numApps = 1
*.priority.app[0].typename = "UdpSourceApp"
*.priority.app[0].display-name = "priority"
*.priority.app[0].io.destAddress = "server"
*.priority.app[0].io.destPort = 1000
*.priority.app[0].source.productionInterval = 0.05ms 
*.priority.app[0].source.packetLength = int(uniform(64B,1460B))


*.priority.bridging.streamIdentifier.identifier.mapping = [{stream: "priority", packetFilter: expr(has(udp) && udp.destPort == 1000)}]
*.switch1.bridging.streamIdentifier.identifier.mapping = [{stream: "ptp", packetFilter: 'Gptp*' }]
# client stream encoding
*.priority.bridging.streamCoder.encoder.mapping = [{stream: "priority", pcp: 6}]

#*.*.bridging.streamCoder.encoder.mapping = [{stream: "ptp", pcp: 7}]
#*.*.bridging.streamCoder.decoder.mapping = [{pcp: 7,stream: "ptp"}]
#*.tsnClock.bridging.streamCoder.decoder.mapping = [{pcp: 7,stream: "ptp"}]
*.*.bridging.streamFilter.*.classifier.mapping = {ptp: 6}

*.priority.hasOutgoingStreams = true
*.server.hasIncommingStreams = true
*.server.hasOutgoingStreams = true #need to avoid packet type 31 errors
*.switch*.hasOutgoingStreams = true
*.switch*.hasIncommingStreams = true

*.*.hasTimeSynchronization = true
# TSN switch gPTP bridge master ports
**.referenceClock = "switch1.clock"
*.tsnClock.gptp.masterPorts = ["eth0"]
*.switch1.gptp.masterPorts = ["eth1", "eth2"]
*.switch.clock.oscillator.typename = "IdealOscillator"
*.priority.clock.oscillator.typename = "ConstantDriftOscillator"
*.priority.clock.oscillator.driftRate = 10ppm
*.server.clock.oscillator.typename = "ConstantDriftOscillator"
*.server.clock.oscillator.driftRate = 10ppm
*.switch*.gptp.syncInterval = 1ms
*.switch*.gptp.pdelayInterval = 1ms

*.visualizer.typename = "IntegratedMultiCanvasVisualizer"
*.visualizer.infoVisualizer.displayInfos = true

*.visualizer.dataLinkVisualizer[0].displayLinks = true
*.visualizer.dataLinkVisualizer[0].activityLevel = "protocol"
*.visualizer.dataLinkVisualizer[0].packetFilter = "GptpSync"
*.visualizer.dataLinkVisualizer[0].lineColor = "blue2"

*.visualizer.numInfoVisualizers = 4
*.visualizer.infoVisualizer[0].modules = "*.tsnClock.clock"
*.tsnClock.clock.displayStringTextFormat = "time: %T"
*.visualizer.infoVisualizer[1].modules = "*.switch1.clock"
*.visualizer.infoVisualizer[1].placementHint = "bottom"
*.visualizer.infoVisualizer[2].modules = "*.priority.clock"
*.visualizer.infoVisualizer[2].placementHint = "bottom"
*.visualizer.infoVisualizer[3].modules = "*.server.clock"
*.visualizer.infoVisualizer[3].placementHint = "bottom"
*.priority.clock.displayStringTextFormat = "diff: %d"
*.server.clock.displayStringTextFormat = "diff: %d"
*.switch*.clock.displayStringTextFormat = "diff: %d"

# enable cut-through in all network nodes

#*.*.eth[*].typename = "LayeredEthernetInterface"
#*.*.eth[*].phyLayer.typename = "EthernetStreamingPhyLayer"

*.switch1.hasEgressTrafficShaping = true

# time-aware traffic shaping
*.switch1.eth[2].macLayer.queue.numTrafficClasses = 2
*.switch1.eth[2].macLayer.queue.queue[0].display-name = "background"
*.switch1.eth[2].macLayer.queue.queue[1].display-name = "priority"
*.switch1.eth[3].macLayer.queue.queue[2].display-name = "ptp"

#*.switch1.eth[2].macLayer.queue.transmissionGate[0].offset = 0us
#*.switch1.eth[2].macLayer.queue.transmissionGate[0].durations = [100us, 900us]
#*.switch1.eth[2].macLayer.queue.transmissionGate[1].offset = 100us
#*.switch1.eth[2].macLayer.queue.transmissionGate[1].durations = [900us, 100us]

[SingleSwitch_cutthrough]
extends = Single_switch
*.*.hasCutthroughSwitching = true

[Baseline]
network = validation_paper 
#

**.fcsChecker.enabled=false
**.priority.eth[0].phyLayer.transmitter.timestamping=true
**.priority.eth[0].phyLayer.transmitter.ts_offset=56
**.priority.eth[0].phyLayer.transmitter.ts_packetFilter = "*priority*"
**.background.eth[0].phyLayer.transmitter.timestamping=true
**.background.eth[0].phyLayer.transmitter.ts_offset=56
**.background.eth[0].phyLayer.transmitter.ts_packetFilter = "*background*"

**.server.eth[0].phyLayer.receiver.timestamping=true
**.server.eth[0].phyLayer.receiver.ts_offset=64
**.server.eth[0].phyLayer.receiver.ts_packetFilter = "*priority* or *background*"
**.crcMode = "computed"
**.fcsMode = "computed"
*.server.numPcapRecorders = 1
*.server.pcapRecorder[*].packetFilter = "*priority* or *background*"
*.server.pcapRecorder[*].pcapFile = "results/server.pcap"
**.pcapRecorder[*].alwaysFlush = true

**.displayGateSchedules = true
**.gateFilter = "**.eth[3].**"#"**"#"**.eth[1].**"
**.gateScheduleVisualizer.height = 16
**.gateScheduleVisualizer.placementHint = "top"
#
*.visualizer.typename = "IntegratedMultiCanvasVisualizer"
*.visualizer.infoVisualizer.displayInfos = true
#
*.server.numApps = 2
*.server.app[*].typename = "UdpSinkApp"
*.server.app[0].display-name = "priority"
*.server.app[1].display-name = "background"
*.server.app[0].io.localPort = 1000
*.server.app[1].io.localPort = 1001
#
*.priority.numApps = 1
*.priority.app[0].typename = "UdpSourceApp"
*.priority.app[0].display-name = "priority"
*.priority.app[0].io.destAddress = "server"
*.priority.app[0].io.destPort = 1000
*.priority.app[0].source.packetLength = 150B
*.priority.app[0].source.productionInterval = 0.05ms 
##besteff
*.background.numApps = 1
*.background.app[0].typename = "UdpSourceApp"
*.background.app[0].display-name = "background"
*.background.app[0].io.destAddress = "server"
*.background.app[0].io.destPort = 1001
*.background.app[0].source.packetLength = 1500B - 50B
*.background.app[0].source.productionInterval = 0.1ms 
#
*.priority.bridging.streamIdentifier.identifier.mapping = [{stream: "priority", packetFilter: expr(has(udp) && udp.destPort == 1000)}]
*.background.bridging.streamIdentifier.identifier.mapping = [{stream: "background", packetFilter: expr(has(udp) && udp.destPort == 1001)}]
*.switch1.bridging.streamIdentifier.identifier.mapping = [{stream: "ptp", packetFilter: 'Gptp*' }]
## client stream encoding
*.priority.bridging.streamCoder.encoder.mapping = [{stream: "priority", pcp: 6}]
*.background.bridging.streamCoder.encoder.mapping = [{stream: "background", pcp: 0}]
#*.*.bridging.streamCoder.encoder.mapping = [{stream: "ptp", pcp: 7}]
#*.*.bridging.streamCoder.decoder.mapping = [{pcp: 7,stream: "ptp"}]
#*.tsnClock.bridging.streamCoder.decoder.mapping = [{pcp: 7,stream: "ptp"}]
#*.*.bridging.streamFilter.*.classifier.mapping = {ptp: 6}
#
*.priority.hasOutgoingStreams = true
*.background.hasOutgoingStreams = true
*.server.hasIncommingStreams = true
*.server.hasOutgoingStreams = true #need to avoid packet type 31 errors
*.switch*.hasOutgoingStreams = true
*.switch*.hasIncommingStreams = true
#
*.*.hasTimeSynchronization = true
## TSN switch gPTP bridge master ports
**.referenceClock = "switch1.clock"
*.tsnClock.gptp.masterPorts = ["eth0"]
*.switch1.gptp.masterPorts = ["eth1", "eth2","eth3"]
*.switch2.gptp.masterPorts = ["eth1"]
*.switch.clock.oscillator.typename = "IdealOscillator"
*.priority.clock.oscillator.typename = "ConstantDriftOscillator"
*.priority.clock.oscillator.driftRate = 10ppm
*.switch2.clock.oscillator.typename = "ConstantDriftOscillator"
*.switch2.clock.oscillator.driftRate = 10ppm
*.background.clock.oscillator.typename = "ConstantDriftOscillator"
*.background.clock.oscillator.driftRate = 10ppm
*.server.clock.oscillator.typename = "ConstantDriftOscillator"
*.server.clock.oscillator.driftRate = 10ppm
*.switch*.gptp.syncInterval = 1ms
*.switch*.gptp.pdelayInterval = 1ms
#
*.visualizer.typename = "IntegratedMultiCanvasVisualizer"
*.visualizer.infoVisualizer.displayInfos = true
#
*.visualizer.dataLinkVisualizer[0].displayLinks = true
*.visualizer.dataLinkVisualizer[0].activityLevel = "protocol"
*.visualizer.dataLinkVisualizer[0].packetFilter = "GptpSync"
*.visualizer.dataLinkVisualizer[0].lineColor = "blue2"
#
*.visualizer.numInfoVisualizers = 6
*.visualizer.infoVisualizer[0].modules = "*.tsnClock.clock"
*.tsnClock.clock.displayStringTextFormat = "time: %T"
*.visualizer.infoVisualizer[1].modules = "*.switch1.clock"
*.visualizer.infoVisualizer[1].placementHint = "bottom"
*.visualizer.infoVisualizer[2].modules = "*.switch2.clock"
*.visualizer.infoVisualizer[2].placementHint = "bottom"
*.visualizer.infoVisualizer[3].modules = "*.priority.clock"
*.visualizer.infoVisualizer[3].placementHint = "bottom"
*.visualizer.infoVisualizer[4].modules = "*.background.clock"
*.visualizer.infoVisualizer[4].placementHint = "bottom"
*.visualizer.infoVisualizer[5].modules = "*.server.clock"
*.visualizer.infoVisualizer[5].placementHint = "bottom"
*.priority.clock.displayStringTextFormat = "diff: %d"
*.background.clock.displayStringTextFormat = "diff: %d"
*.server.clock.displayStringTextFormat = "diff: %d"
*.switch*.clock.displayStringTextFormat = "diff: %d"
#
[Baseline_Cutthrough]
extends = Baseline
## enable cut-through in all network nodes
*.*.hasCutthroughSwitching = true
##*.*.eth[*].typename = "LayeredEthernetInterface"
##*.*.eth[*].phyLayer.typename = "EthernetStreamingPhyLayer"

[Baseline_Shaping]
extends = Baseline
*.switch1.hasEgressTrafficShaping = true
#
## time-aware traffic shaping
*.switch1.eth[3].macLayer.queue.numTrafficClasses = 2
*.switch1.eth[3].macLayer.queue.queue[0].display-name = "background"
*.switch1.eth[3].macLayer.queue.queue[1].display-name = "priority"
##*.switch1.eth[3].macLayer.queue.queue[2].display-name = "ptp"
#
*.switch1.eth[3].macLayer.queue.transmissionGate[0].offset = 0us
*.switch1.eth[3].macLayer.queue.transmissionGate[0].durations = [100us, 900us]
*.switch1.eth[3].macLayer.queue.transmissionGate[1].offset = 100us
*.switch1.eth[3].macLayer.queue.transmissionGate[1].durations = [900us, 100us]

[Baseline_Shaping_cutthrough]
extends = Baseline_Shaping
*.*.hasCutthroughSwitching = true

[Paper1]
description = "Baseline: tactile, fibrolan"
network = fibrolan
**.vector-recording = false

###basic queuing
#**.macLayer.queue.typename="DropTailQueue"

###capture and timestamping
#needs patched inet
**.fcsChecker.enabled=false #need to insert timestamps and for ct
**.tactile.eth[0].phyLayer.transmitter.timestamping=true
**.tactile.eth[0].phyLayer.transmitter.ts_offset=56
**.tactile.eth[0].phyLayer.transmitter.ts_packetFilter = "*tactile*"

**.server.eth[0].phyLayer.receiver.timestamping=true
**.server.eth[0].phyLayer.receiver.ts_offset=64
**.server.eth[0].phyLayer.receiver.ts_packetFilter = "*tactile*"
**.crcMode = "computed" # need for pcap
**.fcsMode = "computed"
*.server.numPcapRecorders = 1
*.server.pcapRecorder[*].packetFilter = "*tactile*"
*.server.pcapRecorder[*].pcapFile = "results/NO_CT/omnet_robotic-NULL-NULL_P1_1518_0.0percent.pcap"
**.pcapRecorder[*].alwaysFlush = true

### transmission apps
*.server.numApps = 1
*.server.app[*].typename = "UdpSinkApp"
*.server.app[0].display-name = "tactile"
*.server.app[0].io.localPort = 1000

*.tactile.numApps = 1
*.tactile.app[0].typename = "UdpSourceApp"
*.tactile.app[0].display-name = "tactile"
*.tactile.app[0].io.destAddress = "server"
*.tactile.app[0].io.destPort = 1000
*.tactile.app[0].source.productionInterval = 1ms 
*.tactile.app[0].source.packetLength = 128B
#int(uniform(64B,1460B))

*.tactile.bridging.streamIdentifier.identifier.mapping = [{stream: "tactile", packetFilter: expr(has(udp) && udp.destPort == 1000)}]
*.tactile.bridging.streamCoder.encoder.mapping = [{stream: "tactile", pcp: 6}]

*.tactile.hasOutgoingStreams = true
*.server.hasIncommingStreams = true
*.server.hasOutgoingStreams = true #need to avoid packet type 31 errors
*.switch*.hasOutgoingStreams = true
*.switch*.hasIncommingStreams = true

*.*.hasTimeSynchronization = true
# TSN switch gPTP bridge master ports
**.referenceClock = "switch1_fibrolan.clock"
*.tsnClock.gptp.masterPorts = ["eth0"]
*.switch1*.gptp.masterPorts = ["eth1", "eth2"]
*.switch1*.clock.oscillator.typename = "IdealOscillator"
# Configure as same as the gPTP test
*.tactile.clock.typename = "SettableClock" 
*.server.clock.typename = "SettableClock" 
*.tactile.clock.oscillator.typename = "RandomDriftOscillator"
*.tactile.clock.oscillator.initialDriftRate = 0ppm
*.tactile.clock.oscillator.changeInterval = 5ms  # before is 2ms
*.tactile.clock.oscillator.driftRateChange = uniform(-0.05ppm,0.05ppm)
*.tactile.clock.oscillator.driftRateChangeLowerLimit = -0.1ppm
*.tactile.clock.oscillator.driftRateChangeUpperLimit = 0.1ppm
*.server.clock.oscillator.typename = "RandomDriftOscillator"
*.server.clock.oscillator.initialDriftRate = 0ppm
*.server.clock.oscillator.changeInterval = 5ms  # before is 2ms
*.server.clock.oscillator.driftRateChange = uniform(-0.05ppm,0.05ppm)
*.server.clock.oscillator.driftRateChangeLowerLimit = -0.1ppm
*.server.clock.oscillator.driftRateChangeUpperLimit = 0.1ppm


*.switch1*.gptp.syncInterval = 125ms # 8 sync message per second (same as the HW)
*.switch1*.gptp.pdelayInterval = 1s
# gPTP New Introduced parameters.
*.switch1*.gptp.clockResetThreshold = 10ns
*.switch1*.gptp.delta = 0.7 # related to the previous oscillator compensation
*.switch1*.gptp.gamma = 1.0 # realted to the nr-1

*.visualizer.typename = "IntegratedMultiCanvasVisualizer"
*.visualizer.infoVisualizer.displayInfos = true

*.visualizer.dataLinkVisualizer[0].displayLinks = true
*.visualizer.dataLinkVisualizer[0].activityLevel = "protocol"
*.visualizer.dataLinkVisualizer[0].packetFilter = "GptpSync"
*.visualizer.dataLinkVisualizer[0].lineColor = "blue2"

*.visualizer.numInfoVisualizers = 4
*.visualizer.infoVisualizer[0].modules = "*.tsnClock.clock"
*.tsnClock.clock.displayStringTextFormat = "time: %T"
*.visualizer.infoVisualizer[1].modules = "*.switch1_fibrolan.clock"
*.visualizer.infoVisualizer[1].placementHint = "bottom"
*.visualizer.infoVisualizer[2].modules = "*.tactile.clock"
*.visualizer.infoVisualizer[2].placementHint = "bottom"
*.visualizer.infoVisualizer[3].modules = "*.server.clock"
*.visualizer.infoVisualizer[3].placementHint = "bottom"
*.tactile.clock.displayStringTextFormat = "diff: %d"
*.server.clock.displayStringTextFormat = "diff: %d"
*.switch*.clock.displayStringTextFormat = "diff: %d"


[Paper2]
description = "Baseline: tactile, kontron"
extends = Paper1
network = kontron
**.referenceClock = "switch1_kontron.clock"
*.server.pcapRecorder[*].pcapFile = "results/NO_CT/omnet_robotic-NULL-NULL_P2_1518_0.0percent.pcap"
*.visualizer.infoVisualizer[1].modules = "*.switch1_kontron.clock"
*.visualizer.infoVisualizer[1].placementHint = "bottom"

[Paper3]
description = "Baseline: tactile, fibrolan+kontron"
extends = Paper1
network = fibrokontron
*.switch2*.gptp.masterPorts = ["eth1"]
*.switch2*.clock.oscillator.typename = "ConstantDriftOscillator"
*.switch2*.clock.oscillator.driftRate = 10ppm
*.visualizer.numInfoVisualizers = 5
*.visualizer.infoVisualizer[4].modules = "*.switch2_kontron.clock"
*.visualizer.infoVisualizer[4].placementHint = "bottom"
*.server.pcapRecorder[*].pcapFile = "results/NO_CT/omnet_robotic-NULL-NULL_P3_1518_0.0percent.pcap"


[Paper4]
description = "CTS: tactile, fibrolan, cutthrough"
extends = Paper1
*.*.hasCutthroughSwitching = true
*.server.pcapRecorder[*].pcapFile = "results/CT/omnet_robotic-NULL-NULL_P4_1518_0.0percent.pcap"

[Paper5]
description = "CTS: tactile, kontron, cutthrough"
extends = Paper2
*.*.hasCutthroughSwitching = true
*.server.pcapRecorder[*].pcapFile = "results/CT/omnet_robotic-NULL-NULL_P5_1518_0.0percent.pcap"

[Paper6]
description = "CTS: tactile, fibrolan+kontron, cutthrough"
extends = Paper3
*.*.hasCutthroughSwitching = true
*.server.pcapRecorder[*].pcapFile = "results/CT/omnet_robotic-NULL-NULL_P6_1518_0.0percent.pcap"

[Paper7]
description = "noQoS: tactile+BE, fibrolan, cutthrough"
extends = Paper4
network = be_fibrolan
*.visualizer.numInfoVisualizers = 7
*.visualizer.infoVisualizer[5].modules = "*.besteffort1.clock"
*.visualizer.infoVisualizer[5].placementHint = "bottom"
*.visualizer.infoVisualizer[6].modules = "*.besteffort2.clock"
*.visualizer.infoVisualizer[6].placementHint = "bottom"
*.besteffort*.clock.displayStringTextFormat = "diff: %d"
#*.besteffort*.clock.oscillator.typename = "ConstantDriftOscillator"
#*.besteffort*.clock.oscillator.driftRate = 10ppm
### transmission apps
*.server.numApps = 2
*.server.app[*].typename = "UdpSinkApp"
*.server.app[1].display-name = "tactile"
*.server.app[1].io.localPort = 1001

*.besteffort*.numApps = 1
*.besteffort*.app[0].typename = "UdpSourceApp"
*.besteffort1.app[0].display-name = "besteffort1"
*.besteffort2.app[0].display-name = "besteffort2"
*.besteffort*.app[0].io.destAddress = "server"
*.besteffort*.app[0].io.destPort = 1001
*.besteffort*.app[0].source.productionInterval = int(exponential(11.68us))
*.besteffort*.app[0].source.packetLength = 1460B

#*.besteffort*.app[*].tagger.typename = "PacketTagger"
#*.besteffort*.app[0].tagger.vlanId = 0
#*.tactile.app[*].tagger.typename = "PacketTagger"
#*.tactile.app[0].tagger.vlanId = 1

*.besteffort*.bridging.streamIdentifier.identifier.mapping = [{stream: "besteffort", packetFilter: expr(has(udp) && udp.destPort == 1001)}]
*.besteffort*.bridging.streamCoder.encoder.mapping = [{stream: "besteffort", pcp: 1}]

*.besteffort*.hasOutgoingStreams = true
*.server.pcapRecorder[*].pcapFile = "results/CT/omnet_robotic-NULL-NULL_P7_1518_0.0percent.pcap"

[Config P7_bg200]
extends=Paper7

*.server.pcapRecorder[*].pcapFile = "results/CT/omnet_robotic-NULL-NULL_P7_1518_200.0percent.pcap"
*.besteffort*.app[0].source.productionInterval = int(exponential(11.68us))

[Config P7_bg100]
extends=Paper7

*.server.pcapRecorder[*].pcapFile = "results/CT/omnet_robotic-NULL-NULL_P7_1518_100.0percent.pcap"
*.besteffort*.app[0].source.productionInterval = int(exponential(11.68us/0.5))

[Config P7_bg90]
extends=Paper7

*.server.pcapRecorder[*].pcapFile = "results/CT/omnet_robotic-NULL-NULL_P7_1518_90.0percent.pcap"
*.besteffort*.app[0].source.productionInterval = int(exponential(11.68us/0.45))

[Config P7_bg80]
extends=Paper7

*.server.pcapRecorder[*].pcapFile = "results/CT/omnet_robotic-NULL-NULL_P7_1518_80.0percent.pcap"
*.besteffort*.app[0].source.productionInterval = int(exponential(11.68us/0.4))

[Paper8]
description = "noQoS: tactile+BE, kontron, cutthrough"
extends = Paper7
network = be_kontron
**.referenceClock = "switch1_kontron.clock"
*.visualizer.infoVisualizer[1].modules = "*.switch1_kontron.clock"
*.visualizer.infoVisualizer[1].placementHint = "bottom"
*.server.pcapRecorder[*].pcapFile = "results/CT/omnet_robotic-NULL-NULL_P8_1518_0.0percent.pcap"

[Config p8_bg200]
extends=Paper8

*.server.pcapRecorder[*].pcapFile = "results/CT/omnet_robotic-NULL-NULL_P8_1518_200.0percent.pcap"
*.besteffort*.app[0].source.productionInterval = int(exponential(11.68us))

[Config p8_bg100]
extends=Paper8

*.server.pcapRecorder[*].pcapFile = "results/CT/omnet_robotic-NULL-NULL_P8_1518_100.0percent.pcap"
*.besteffort*.app[0].source.productionInterval = int(exponential(11.68us/0.5))

[Config p8_bg90]
extends=Paper8

*.server.pcapRecorder[*].pcapFile = "results/CT/omnet_robotic-NULL-NULL_P8_1518_90.0percent.pcap"
*.besteffort*.app[0].source.productionInterval = int(exponential(11.68us/0.45))

[Config p8_bg80]
extends=Paper8

*.server.pcapRecorder[*].pcapFile = "results/CT/omnet_robotic-NULL-NULL_P8_1518_80.0percent.pcap"
*.besteffort*.app[0].source.productionInterval = int(exponential(11.68us/0.4))

[Paper9]
description = "noQoS: tactile+BE, fibrolan+kontron, cutthrough"
extends = Paper7
network = be_fibrokontron
#**.macLayer.queue.typename="None"
*.server.pcapRecorder[*].pcapFile = "results/CT/omnet_robotic-NULL-NULL_P9_1518_0.0percent.pcap"
*.switch2*.gptp.masterPorts = ["eth1"]
*.switch2*.clock.oscillator.typename = "ConstantDriftOscillator"
*.switch2*.clock.oscillator.driftRate = 10ppm
*.visualizer.infoVisualizer[4].modules = "*.switch2_kontron.clock"
*.visualizer.infoVisualizer[4].placementHint = "bottom"


[Config p9_bg200]
extends=Paper9

*.server.pcapRecorder[*].pcapFile = "results/CT/omnet_robotic-NULL-NULL_P9_1518_200.0percent.pcap"
*.besteffort*.app[0].source.productionInterval = int(exponential(11.68us))

[Config p9_bg100]
extends=Paper9

*.server.pcapRecorder[*].pcapFile = "results/CT/omnet_robotic-NULL-NULL_P9_1518_100.0percent.pcap"
*.besteffort*.app[0].source.productionInterval = int(exponential(11.68us/0.5))

[Config p9_bg90]
extends=Paper9

*.server.pcapRecorder[*].pcapFile = "results/CT/omnet_robotic-NULL-NULL_P9_1518_90.0percent.pcap"
*.besteffort*.app[0].source.productionInterval = int(exponential(11.68us/0.45))

[Config p9_bg80]
extends=Paper9

*.server.pcapRecorder[*].pcapFile = "results/CT/omnet_robotic-NULL-NULL_P9_1518_80.0percent.pcap"
*.besteffort*.app[0].source.productionInterval = int(exponential(11.68us/0.4))

[Paper10]
description = "TAS: tactile+BE, fibrolan, cutthrough+TAS"
extends = Paper7
*.server.pcapRecorder[*].pcapFile = "results/CT/omnet_robotic-NULL-NULL_P10_1518_0.0percent.pcap"
*.switch1*.hasEgressTrafficShaping = true
**.displayGateSchedules = true
**.gateFilter = "**.eth[3].**"
**.gateScheduleVisualizer.height = 16
**.gateScheduleVisualizer.placementHint = "top"
*.switch1*.eth[3].macLayer.queue.numTrafficClasses = 2
*.switch1*.eth[3].macLayer.queue.queue[0].display-name = "besteffort"
*.switch1*.eth[3].macLayer.queue.queue[1].display-name = "tactile"
*.switch1*.eth[3].macLayer.queue.transmissionGate[0].offset = 0us
*.switch1*.eth[3].macLayer.queue.transmissionGate[0].durations = [100us, 900us]
*.switch1*.eth[3].macLayer.queue.transmissionGate[1].offset = 100us
*.switch1*.eth[3].macLayer.queue.transmissionGate[1].durations = [900us, 100us]

[Config p10_bg200]
extends=Paper10

*.server.pcapRecorder[*].pcapFile = "results/CT/omnet_robotic-NULL-NULL_P10_1518_200.0percent.pcap"
*.besteffort*.app[0].source.productionInterval = int(exponential(11.68us))

[Config p10_bg100]
extends=Paper10

*.server.pcapRecorder[*].pcapFile = "results/CT/omnet_robotic-NULL-NULL_P10_1518_100.0percent.pcap"
*.besteffort*.app[0].source.productionInterval = int(exponential(11.68us/0.5))

[Config p10_bg90]
extends=Paper10

*.server.pcapRecorder[*].pcapFile = "results/CT/omnet_robotic-NULL-NULL_P10_1518_90.0percent.pcap"
*.besteffort*.app[0].source.productionInterval = int(exponential(11.68us/0.45))

[Config p10_bg80]
extends=Paper10

*.server.pcapRecorder[*].pcapFile = "results/CT/omnet_robotic-NULL-NULL_P10_1518_80.0percent.pcap"
*.besteffort*.app[0].source.productionInterval = int(exponential(11.68us/0.4))

[Paper11]
description = "TAS: tactile+BE, kontron, cutthrough+TAS"
extends = Paper8
*.server.pcapRecorder[*].pcapFile = "results/CT/omnet_robotic-NULL-NULL_P11_1518_0.0percent.pcap"
*.switch1*.hasEgressTrafficShaping = true
**.displayGateSchedules = true
**.gateFilter = "**.eth[3].**"
**.gateScheduleVisualizer.height = 16
**.gateScheduleVisualizer.placementHint = "top"
*.switch1*.eth[3].macLayer.queue.numTrafficClasses = 2
*.switch1*.eth[3].macLayer.queue.queue[0].display-name = "besteffort"
*.switch1*.eth[3].macLayer.queue.queue[1].display-name = "tactile"
*.switch1*.eth[3].macLayer.queue.transmissionGate[0].offset = 0us
*.switch1*.eth[3].macLayer.queue.transmissionGate[0].durations = [100us, 900us]
*.switch1*.eth[3].macLayer.queue.transmissionGate[1].offset = 100us
*.switch1*.eth[3].macLayer.queue.transmissionGate[1].durations = [900us, 100us]


[Config p11_bg200]
extends=Paper11

*.server.pcapRecorder[*].pcapFile = "results/CT/omnet_robotic-NULL-NULL_P11_1518_200.0percent.pcap"
*.besteffort*.app[0].source.productionInterval = int(exponential(11.68us))

[Config p11_bg100]
extends=Paper11

*.server.pcapRecorder[*].pcapFile = "results/CT/omnet_robotic-NULL-NULL_P11_1518_100.0percent.pcap"
*.besteffort*.app[0].source.productionInterval = int(exponential(11.68us/0.5))

[Config p11_bg90]
extends=Paper11

*.server.pcapRecorder[*].pcapFile = "results/CT/omnet_robotic-NULL-NULL_P11_1518_90.0percent.pcap"
*.besteffort*.app[0].source.productionInterval = int(exponential(11.68us/0.45))

[Config p11_bg80]
extends=Paper11

*.server.pcapRecorder[*].pcapFile = "results/CT/omnet_robotic-NULL-NULL_P11_1518_80.0percent.pcap"
*.besteffort*.app[0].source.productionInterval = int(exponential(11.68us/0.4))

[Paper12]
description = "TAS: tactile+BE, fibrolan+kontron, cutthrough+TAS"
extends = Paper9
*.server.pcapRecorder[*].pcapFile = "results/CT/omnet_robotic-NULL-NULL_P12_1518_0.0percent.pcap"
*.switch1*.hasEgressTrafficShaping = true
**.displayGateSchedules = true
**.gateFilter = "**.eth[3].**"
**.gateScheduleVisualizer.height = 16
**.gateScheduleVisualizer.placementHint = "top"
*.switch1*.eth[3].macLayer.queue.numTrafficClasses = 2
*.switch1*.eth[3].macLayer.queue.queue[0].display-name = "besteffort"
*.switch1*.eth[3].macLayer.queue.queue[1].display-name = "tactile"
*.switch1*.eth[3].macLayer.queue.transmissionGate[0].offset = 0us
*.switch1*.eth[3].macLayer.queue.transmissionGate[0].durations = [100us, 900us]
*.switch1*.eth[3].macLayer.queue.transmissionGate[1].offset = 100us
*.switch1*.eth[3].macLayer.queue.transmissionGate[1].durations = [900us, 100us]

[Config p12_bg200]
extends=Paper12

*.server.pcapRecorder[*].pcapFile = "results/CT/omnet_robotic-NULL-NULL_P12_1518_200.0percent.pcap"
*.besteffort*.app[0].source.productionInterval = int(exponential(11.68us))

[Config p12_bg100]
extends=Paper12

*.server.pcapRecorder[*].pcapFile = "results/CT/omnet_robotic-NULL-NULL_P12_1518_100.0percent.pcap"
*.besteffort*.app[0].source.productionInterval = int(exponential(11.68us/0.5))

[Config p12_bg90]
extends=Paper12

*.server.pcapRecorder[*].pcapFile = "results/CT/omnet_robotic-NULL-NULL_P12_1518_90.0percent.pcap"
*.besteffort*.app[0].source.productionInterval = int(exponential(11.68us/0.45))

[Config p12_bg80]
extends=Paper12

*.server.pcapRecorder[*].pcapFile = "results/CT/omnet_robotic-NULL-NULL_P12_1518_80.0percent.pcap"
*.besteffort*.app[0].source.productionInterval = int(exponential(11.68us/0.4))


[Paper13]
description = "FP: tactile+BE, fibrolan+kontron, cutthrough+FramePreemption"
extends = Paper9
*.server.pcapRecorder[*].pcapFile = "results/omnet_robotic-NULL-NULL_P13_1518_0.0percent.pcap"
*.*.ethernet.typename = "EthernetLayer"
*.switch1*.eth[4].typename = "LayeredEthernetInterface"
*.switch2*.eth[0].typename = "LayeredEthernetInterface"
#*.tactile.eth[0].macLayer.typename = "EthernetPreemptingMacLayer"
#*.tactile.eth[0].phyLayer.typename = "EthernetPreemptingPhyLayer"
*.switch1*.eth[4].macLayer.typename = "EthernetPreemptingMacLayer"
*.switch1*.eth[4].phyLayer.typename = "EthernetPreemptingPhyLayer"
*.switch2*.eth[0].macLayer.typename = "EthernetPreemptingMacLayer"
*.switch2*.eth[0].phyLayer.typename = "EthernetPreemptingPhyLayer"
**.macLayer.typename = "EthernetPreemptingMacLayer"
**.phyLayer.typename = "EthernetPreemptingPhyLayer"
*.switch1*.eth[4].macLayer.outboundClassifier.classifierClass="inet::PacketNameClassifier"
#*.switch1*.eth[4].macLayer.outboundClassifier
#*.switch*.hasFramePreemption=true
*.switch1*.eth[4].macLayer.queue.typename=""
*.switch2*.eth[0].macLayer.queue.typename=""
**.macLayer.queue.typename=""
**.macLayer.queue.typename=""


**.macLayer.*.queue.packetCapacity = 4
**.macLayer.*.queue.typename = "DropTailQueue"

[Config p13_bg200]
extends=Paper13

*.server.pcapRecorder[*].pcapFile = "results/CT/omnet_robotic-NULL-NULL_P13_1518_200.0percent.pcap"
*.besteffort*.app[0].source.productionInterval = int(exponential(11.68us))

[Config p13_bg100]
extends=Paper13

*.server.pcapRecorder[*].pcapFile = "results/CT/omnet_robotic-NULL-NULL_P13_1518_100.0percent.pcap"
*.besteffort*.app[0].source.productionInterval = int(exponential(11.68us/0.5))

[Config p13_bg90]
extends=Paper13

*.server.pcapRecorder[*].pcapFile = "results/CT/omnet_robotic-NULL-NULL_P13_1518_90.0percent.pcap"
*.besteffort*.app[0].source.productionInterval = int(exponential(11.68us/0.45))

[Config p13_bg80]
extends=Paper13

*.server.pcapRecorder[*].pcapFile = "results/CT/omnet_robotic-NULL-NULL_P13_1518_80.0percent.pcap"
*.besteffort*.app[0].source.productionInterval = int(exponential(11.68us/0.4))

[Paper14]
description = "TAS+FP: tactile+BE, fibrolan+kontron, cutthrough+TAS+FramePreemption"
extends = Paper12
*.server.pcapRecorder[*].pcapFile = "results/CT/omnet_robotic-NULL-NULL_P14_1518_0.0percent.pcap"

[Config p14_bg200]
extends=Paper14

*.server.pcapRecorder[*].pcapFile = "results/CT/omnet_robotic-NULL-NULL_P14_1518_200.0percent.pcap"
*.besteffort*.app[0].source.productionInterval = int(exponential(11.68us))

[Config p14_bg100]
extends=Paper14

*.server.pcapRecorder[*].pcapFile = "results/CT/omnet_robotic-NULL-NULL_P14_1518_100.0percent.pcap"
*.besteffort*.app[0].source.productionInterval = int(exponential(11.68us/0.5))

[Config p14_bg90]
extends=Paper14

*.server.pcapRecorder[*].pcapFile = "results/CT/omnet_robotic-NULL-NULL_P14_1518_90.0percent.pcap"